


 33 35  0  0  0  0  0  0  0  0999 V2000
   -1.5089   -0.7360   -2.3769 C   0  0  0  0  0  0  0  0  0  0  0  0
   -0.2119   -1.2696   -2.5572 O   0  0  0  0  0  0  0  0  0  0  0  0
    0.2486   -0.8743   -3.8290 C   0  0  0  0  0  0  0  0  0  0  0  0
   -0.5238    0.3828   -4.2337 C   0  0  0  0  0  0  0  0  0  0  0  0
   -0.6448    0.5434   -5.6284 O   0  0  0  0  0  0  0  0  0  0  0  0
   -1.8532    0.2097   -3.5334 C   0  0  0  0  0  0  0  0  0  0  0  0
   -2.8052   -0.3984   -4.3710 O   0  0  0  0  0  0  0  0  0  0  0  0
   -0.9448   -0.3169   -6.0228 H   0  0  0  0  0  0  0  0  0  0  0  0
   -3.2298    0.3286   -4.8973 H   0  0  0  0  0  0  0  0  0  0  0  0
   -1.9957    3.0981    2.3325 N   0  0  0  0  0  0  0  0  0  0  0  0
   -1.8083    2.8170    0.9457 C   0  0  0  0  0  0  0  0  0  0  0  0
   -1.6798    3.8325    0.0403 N   0  0  0  0  0  0  0  0  0  0  0  0
   -1.5087    3.5806   -1.2970 C   0  0  0  0  0  0  0  0  0  0  0  0
   -1.4614    2.2946   -1.7588 N   0  0  0  0  0  0  0  0  0  0  0  0
   -1.5837    1.2894   -0.8594 C   0  0  0  0  0  0  0  0  0  0  0  0
   -1.7564    1.5134    0.4628 C   0  0  0  0  0  0  0  0  0  0  0  0
   -1.8828    0.3483    1.1263 N   0  0  0  0  0  0  0  0  0  0  0  0
   -1.7741   -0.5765    0.1330 C   0  0  0  0  0  0  0  0  0  0  0  0
   -1.5789   -0.0299   -1.0951 N   0  0  0  0  0  0  0  0  0  0  0  0
   -2.0946    2.3270    3.0300 H   0  0  0  0  0  0  0  0  0  0  0  0
   -2.0321    4.0874    2.6663 H   0  0  0  0  0  0  0  0  0  0  0  0
    1.7622   -0.6413   -3.7653 C   0  0  0  0  0  0  0  0  0  0  0  0
    2.2609    0.0493   -2.1450 S   0  0  0  0  0  0  0  0  0  0  0  0
    3.0040    1.5790   -2.8148 C   0  0  0  0  0  0  0  0  0  0  0  0
    2.1615    2.7981   -2.4163 C   0  0  0  0  0  0  0  0  0  0  0  0
    1.6560    3.5987   -3.6416 C   0  0  0  0  0  0  0  0  0  0  0  0
    1.6721    2.7912   -4.8646 N   0  0  0  0  0  0  0  0  0  0  0  0
    0.8940    2.0943   -4.8296 H   0  0  0  0  0  0  0  0  0  0  0  0
    2.5749    2.2673   -4.9326 H   0  0  0  0  0  0  0  0  0  0  0  0
    2.4660    4.8453   -3.8799 C   0  0  0  0  0  0  0  0  0  0  0  0
    2.7738    5.6178   -2.9311 O   0  0  0  0  0  0  0  0  0  0  0  0
    2.8851    5.1459   -5.1721 O   0  0  0  0  0  0  0  0  0  0  0  0
    3.4331    5.9771   -5.3617 H   0  0  0  0  0  0  0  0  0  0  0  0
 10 11  1  0  0  0
 10 20  1  0  0  0
 10 21  1  0  0  0
 11 12  2  0  0  0
 11 16  1  0  0  0
 12 13  1  0  0  0
 13 14  2  0  0  0
 14 15  1  0  0  0
 15 16  2  0  0  0
 15 19  1  0  0  0
 16 17  1  0  0  0
 17 18  2  0  0  0
 18 19  1  0  0  0
 19  1  1  0  0  0
  1  2  1  0  0  0
  1  6  1  0  0  0
  2  3  1  0  0  0
  3 22  1  0  0  0
  3  4  1  0  0  0
 22 23  1  0  0  0
 23 24  1  0  0  0
 24 25  1  0  0  0
 25 26  1  0  0  0
 26 27  1  0  0  0
 26 30  1  0  0  0
 27 28  1  0  0  0
 27 29  1  0  0  0
 30 31  2  0  0  0
 30 32  1  0  0  0
 32 33  1  0  0  0
  4  5  1  0  0  0
  4  6  1  0  0  0
  5  8  1  0  0  0
  6  7  1  0  0  0
  7  9  1  0  0  0
M  END
> <minimizedAffinity>
-10.10790

> <CNNscore>
0.4010811746

> <CNNaffinity>
5.7934799194

> <CNN_VS>
2.3236558437

> <CNNaffinity_variance>
0.8767898679

$$$$
